Circuit: * C:\Users\jotru\Documents\Studium Leipzig\2. Semester\Embedded Systems 3\Re-EMF-Projekt\Platine\Simulation.asc

Warning: Multiple definitions of model "2scr375p" Type: BJT
Warning: Multiple definitions of model "bc857b" Type: BJT
Warning: Multiple definitions of model "bc847c" Type: BJT
Warning: Multiple definitions of model "bc847b" Type: BJT
Direct Newton iteration for .op point succeeded.


Measurement "t1" FAIL'ed

Measurement "t2" FAIL'ed

Measurement "period" FAIL'ed

Measurement "freq" FAIL'ed


Date: Tue Aug 19 11:24:05 2025
Total elapsed time: 0.272 seconds.

tnom = 27
temp = 27
method = modified trap
totiter = 2105
traniter = 2088
tranpoints = 1045
accept = 1045
rejected = 0
matrix size = 13
fillins = 12
solver = Normal
Matrix Compiler1: 1.64 KB object code size  0.6/0.4/[0.2]
Matrix Compiler2: 1.32 KB object code size  0.3/0.4/[0.2]

